/*--------------------------------*- C++ -*----------------------------------*\
| =========                 |                                                 |
| \\      /  F ield         | OpenFOAM: The Open Source CFD Toolbox           |
|  \\    /   O peration     | Version:  v2112                                 |
|   \\  /    A nd           | Website:  www.openfoam.com                      |
|    \\/     M anipulation  |                                                 |
\*---------------------------------------------------------------------------*/
FoamFile
{
    version     2.0;
    format      ascii;
    class       dictionary;
    object      controlDict;
}
// * * * * * * * * * * * * * * * * * * * * * * * * * * * * * * * * * * * * * //

application       simpleFoam;

startFrom         latestTime;

startTime         0;

stopAt            endTime;

endTime           0.5;

deltaT            1e-3;

writeControl      adjustable;

writeInterval     0.005;

purgeWrite        1;

writeFormat       binary;

writePrecision    7;

writeCompression  no;

timeFormat        general;

timePrecision     6;

runTimeModifiable yes;

adjustTimeStep    yes;

maxCo             2;

functions
{
    #includeFunc Q
    #include "sampling/yPlus"
    #include "sampling/surfaces"
    #include "sampling/forces"
    #include "sampling/AMIWeights"
    #include "sampling/propellerInfo"
}

// ************************************************************************* //
