/*--------------------------------*- C++ -*----------------------------------*\
| =========                 |                                                 |
| \\      /  F ield         | OpenFOAM: The Open Source CFD Toolbox           |
|  \\    /   O peration     | Version:  v2112                                 |
|   \\  /    A nd           | Website:  www.openfoam.com                      |
|    \\/     M anipulation  |                                                 |
\*---------------------------------------------------------------------------*/
FoamFile
{
    version     2.0;
    format      ascii;
    class       dictionary;
    object      surfaceFeatureExtractDict;
}
// * * * * * * * * * * * * * * * * * * * * * * * * * * * * * * * * * * * * * //

#include "geometryInfo" 

turbine_rotor_HK_NoPrandtl.obj
{
    extractionMethod    extractFromSurface;
    includedAngle       150;
}
    

AMI.obj
{
    extractionMethod    extractFromSurface;
    includedAngle       150;
}
    

turbine_comp_diffuser_S1223.obj
{
    extractionMethod    extractFromSurface;
    includedAngle       150;
}
    
